examples/test_perturbation_outputs/pert_min_cost/pglib_opf_case1354_pegase.m
%% MATPOWER Case Format : Version 2
function mpc = pglib_opf_case1354_pegase
mpc.version = '2';

%%-----  Power Flow Data  -----%%
%% system MVA base
mpc.baseMVA = 100.0;
%% bus data
%    bus_i    type    Pd    Qd    Gs    Bs    area    Vm    Va    baseKV    zone    Vmax    Vmin
mpc.bus = [
	3	1	151.0	48.8	0.0	4.69	0	1.0	0.0	220.0	5	1.1	0.9				
	4	1	171.41	23.4	0.0	2.1	0	1.0	0.0	220.0	5	1.1	0.9				
	10	1	134.0	24.7	0.0	12.44	0	1.0	0.0	220.0	5	1.1	0.9				
	21	1	161.2	39.3	0.0	30.709999999999997	0	1.0	0.0	220.0	5	1.1	0.9				
	22	1	0.0	0.0	0.0	0.8500000000000001	0	1.0	0.0	220.0	5	1.1	0.9				
	26	1	167.3	54.79999999999999	0.0	110.54000000000002	0	1.0	0.0	380.0	5	1.1	0.9				
	29	1	152.9	49.4	0.0	27.65	0	1.0	0.0	380.0	5	1.1	0.9				
	44	1	0.0	0.0	0.0	7.2700000000000005	0	1.0	0.0	220.0	5	1.1	0.9				
	53	1	48.65	16.1	0.0	7.139999999999999	0	1.0	0.0	220.0	5	1.1	0.9				
	58	1	0.0	0.0	0.0	2.31	0	1.0	0.0	380.0	5	1.1	0.9				
	59	1	119.19999999999999	20.7	0.0	3.3099999999999996	0	1.0	0.0	220.0	5	1.1	0.9				
	90	1	363.25	115.38999999999999	0.0	3.95	0	1.0	0.0	220.0	5	1.1	0.9				
	96	1	-8.4	28.660000000000004	0.0	3.49	0	1.0	0.0	220.0	5	1.1	0.9				
	113	1	0.0	0.0	0.0	6.532710999999999	0	1.0	0.0	380.0	5	1.1	0.9				
	115	1	0.0	0.0	0.0	4.21	0	1.0	0.0	220.0	5	1.1	0.9				
	118	1	704.53	-35.33	0.0	13.102834	0	1.0	0.0	380.0	5	1.1	0.9				
	124	2	0.0	0.0	0.0	0.0	0	1.0	0.0	220.0	5	1.1	0.9				
	128	1	23.73	12.7	0.0	0.52	0	1.0	0.0	220.0	5	1.1	0.9				
	145	1	38.34	5.6	0.0	7.64	0	1.0	0.0	220.0	5	1.1	0.9				
	148	1	32.34	12.0	0.0	6.1	0	1.0	0.0	220.0	5	1.1	0.9				
	150	2	0.0	0.0	0.0	0.0	0	1.0	0.0	220.0	5	1.1	0.9				
	163	1	147.76	32.73	0.0	8.34	0	1.0	0.0	220.0	5	1.1	0.9				
	171	1	100.8	13.200000000000001	0.0	5.24	0	1.0	0.0	220.0	5	1.1	0.9				
	174	1	370.5	-17.0	0.0	9.91	0	1.0	0.0	220.0	5	1.1	0.9				
	184	1	0.0	0.0	0.0	2.42	0	1.0	0.0	220.0	5	1.1	0.9				
	188	1	36.84	13.900000000000002	0.0	3.3000000000000003	0	1.0	0.0	220.0	5	1.1	0.9				
	195	1	73.14	21.55	0.0	8.52	0	1.0	0.0	220.0	5	1.1	0.9				
	196	1	0.0	0.0	0.0	12.48	0	1.0	0.0	220.0	5	1.1	0.9				
	198	1	39.74	11.8	0.0	1.44	0	1.0	0.0	220.0	5	1.1	0.9				
	207	1	321.98	84.4	0.0	1.34	0	1.0	0.0	220.0	5	1.1	0.9				
	216	1	155.6	54.7	0.0	2.21	0	1.0	0.0	220.0	5	1.1	0.9				
	217	1	105.2	0.1	0.0	7.359999999999999	0	1.0	0.0	220.0	5	1.1	0.9				
	218	1	69.83	15.120000000000001	0.0	2.23	0	1.0	0.0	220.0	5	1.1	0.9				
	221	2	0.0	0.0	0.0	0.0	0	1.0	0.0	380.0	5	1.1	0.9				
	225	1	0.0	0.0	0.0	1.15	0	1.0	0.0	220.0	5	1.1	0.9				
	280	1	119.6	29.600000000000005	0.0	5.34	0	1.0	0.0	220.0	5	1.1	0.9				
	283	1	27.33	11.9	0.0	1.17	0	1.0	0.0	220.0	5	1.1	0.9				
	292	1	13.819999999999999	1.4	0.0	0.7	0	1.0	0.0	220.0	5	1.1	0.9				
	305	1	103.0	12.0	0.0	0.63	0	1.0	0.0	220.0	5	1.1	0.9				
	306	1	0.0	0.0	0.0	4.76	0	1.0	0.0	220.0	5	1.1	0.9				
	314	1	163.1	46.3	0.0	10.6	0	1.0	0.0	220.0	5	1.1	0.9				
	333	1	524.5	43.0	0.0	6.849999999999999	0	1.0	0.0	220.0	5	1.1	0.9				
	338	2	0.0	0.0	0.0	0.0	0	1.0	0.0	220.0	5	1.1	0.9				
	346	1	197.5	48.3	0.0	0.71	0	1.0	0.0	220.0	5	1.1	0.9				
	350	1	110.4	26.200000000000003	0.0	5.62	0	1.0	0.0	220.0	5	1.1	0.9				
	352	2	0.0	0.0	0.0	0.0	0	1.0	0.0	380.0	5	1.1	0.9				
	367	1	65.17	-51.5	0.0	4.85	0	1.0	0.0	220.0	5	1.1	0.9				
	401	1	56.49999999999999	36.29	0.0	3.08	0	1.0	0.0	220.0	5	1.1	0.9				
	408	1	129.1	7.400000000000001	0.0	0.04	0	1.0	0.0	220.0	5	1.1	0.9				
	410	1	170.89	50.38	0.0	6.4399999999999995	0	1.0	0.0	220.0	5	1.1	0.9				
	413	2	0.0	0.0	0.0	0.0	0	1.0	0.0	220.0	5	1.1	0.9				
	416	1	70.68	13.5	0.0	6.959999999999999	0	1.0	0.0	220.0	5	1.1	0.9				
	426	1	123.1	6.5	0.0	3.25	0	1.0	0.0	220.0	5	1.1	0.9				
	432	1	0.0	0.0	0.0	68.517663	0	1.0	0.0	380.0	5	1.1	0.9				
	444	1	0.0	0.0	0.0	2.45	0	1.0	0.0	220.0	5	1.1	0.9				
	449	1	0.0	0.0	0.0	29.42	0	1.0	0.0	380.0	5	1.1	0.9				
	453	2	0.0	0.0	0.0	0.0	0	1.0	0.0	380.0	5	1.1	0.9				
	455	1	274.32	5.66	0.0	13.239999999999998	0	1.0	0.0	220.0	5	1.1	0.9				
	490	1	20.52	4.0	0.0	2.77	0	1.0	0.0	220.0	5	1.1	0.9				
	500	1	144.4	35.5	0.0	7.66	0	1.0	0.0	220.0	5	1.1	0.9				
	502	1	0.0	0.0	0.0	1.96	0	1.0	0.0	220.0	5	1.1	0.9				
	506	1	0.0	0.0	0.0	0.4	0	1.0	0.0	380.0	5	1.1	0.9				
	513	1	57.46	17.1	0.0	1.6099999999999999	0	1.0	0.0	220.0	5	1.1	0.9				
	516	2	0.0	0.0	0.0	0.0	0	1.0	0.0	220.0	5	1.1	0.9				
	520	1	118.5	20.4	0.0	2.57	0	1.0	0.0	220.0	5	1.1	0.9				
	549	1	0.0	0.0	0.0	5.15	0	1.0	0.0	220.0	5	1.1	0.9				
	554	1	0.0	0.0	0.0	1.97	0	1.0	0.0	220.0	5	1.1	0.9				
	556	1	16.52	9.0	0.0	1.17	0	1.0	0.0	220.0	5	1.1	0.9				
	561	1	0.0	0.0	0.0	0.32	0	1.0	0.0	220.0	5	1.1	0.9				
	564	2	0.0	0.0	0.0	0.0	0	1.0	0.0	220.0	5	1.1	0.9				
	575	1	0.0	0.0	0.0	0.67	0	1.0	0.0	220.0	5	1.1	0.9				
	583	2	0.0	0.0	0.0	0.0	0	1.0	0.0	220.0	5	1.1	0.9				
	594	1	67.57	17.0	0.0	5.75	0	1.0	0.0	220.0	5	1.1	0.9				
	601	1	140.6	42.6	0.0	5.71	0	1.0	0.0	220.0	5	1.1	0.9				
	604	1	33.24	4.4	0.0	24.54	0	1.0	0.0	380.0	5	1.1	0.9				
	608	1	150.9	10.4	0.0	4.77	0	1.0	0.0	220.0	5	1.1	0.9				
	609	1	0.0	0.0	0.0	5.67	0	1.0	0.0	220.0	5	1.1	0.9				
	615	2	0.0	0.0	0.0	0.0	0	1.0	0.0	220.0	5	1.1	0.9				
	616	2	0.0	0.0	0.0	0.0	0	1.0	0.0	220.0	5	1.1	0.9				
	619	1	72.88	14.400000000000002	0.0	2.96	0	1.0	0.0	220.0	5	1.1	0.9				
	639	2	0.0	0.0	0.0	0.0	0	1.0	0.0	220.0	5	1.1	0.9				
	641	1	45.32	18.5	0.0	0.74	0	1.0	0.0	220.0	5	1.1	0.9				
	658	1	258.4	66.7	0.0	5.87	0	1.0	0.0	220.0	5	1.1	0.9				
	661	1	0.0	0.0	0.0	0.6	0	1.0	0.0	380.0	5	1.1	0.9				
	666	1	-5.61	-2.79	0.0	150.93	0	1.0	0.0	380.0	5	1.1	0.9				
	678	1	232.09999999999997	89.8	0.0	0.09	0	1.0	0.0	220.0	5	1.1	0.9				
	682	2	0.0	0.0	0.0	0.0	0	1.0	0.0	220.0	5	1.1	0.9				
	687	1	0.0	0.0	0.0	5.6	0	1.0	0.0	220.0	5	1.1	0.9				
	707	1	83.99	21.2	0.0	5.36	0	1.0	0.0	220.0	5	1.1	0.9				
	718	1	135.11	41.0	0.0	5.31	0	1.0	0.0	220.0	5	1.1	0.9				
	720	1	0.0	0.0	0.0	23.554121	0	1.0	0.0	380.0	5	1.1	0.9				
	726	1	400.3	189.9	0.0	0.53	0	1.0	0.0	220.0	5	1.1	0.9				
	742	1	0.0	0.0	0.0	2.83	0	1.0	0.0	220.0	5	1.1	0.9				
	747	1	69.58	16.0	0.0	3.03	0	1.0	0.0	220.0	5	1.1	0.9				
	749	2	0.0	0.0	0.0	0.0	0	1.0	0.0	220.0	5	1.1	0.9				
	750	1	0.0	0.0	0.0	18.63	0	1.0	0.0	220.0	5	1.1	0.9				
	757	2	0.0	0.0	0.0	0.0	0	1.0	0.0	380.0	5	1.1	0.9				
	766	1	0.0	0.0	0.0	7.85	0	1.0	0.0	220.0	5	1.1	0.9				
	769	1	152.57	40.0	0.0	6.12	0	1.0	0.0	220.0	5	1.1	0.9				
	772	1	343.9	141.9	0.0	5.55	0	1.0	0.0	220.0	5	1.1	0.9				
	776	2	0.0	0.0	0.0	0.0	0	1.0	0.0	220.0	5	1.1	0.9				
	778	2	0.0	0.0	0.0	0.0	0	1.0	0.0	220.0	5	1.1	0.9				
	789	1	0.0	0.0	0.0	6.63	0	1.0	0.0	220.0	5	1.1	0.9				
	795	2	0.0	0.0	0.0	0.0	0	1.0	0.0	220.0	5	1.1	0.9				
	800	1	50.56	18.0	0.0	0.11	0	1.0	0.0	220.0	5	1.1	0.9				
	803	2	0.0	0.0	0.0	0.0	0	1.0	0.0	220.0	5	1.1	0.9				
	804	1	0.0	0.0	0.0	7.26	0	1.0	0.0	220.0	5	1.1	0.9				
	805	1	124.50000000000001	29.600000000000005	0.0	15.4	0	1.0	0.0	220.0	5	1.1	0.9				
	809	1	0.0	0.0	0.0	58.08868700000001	0	1.0	0.0	380.0	5	1.1	0.9				
	819	1	0.0	0.0	0.0	0.22	0	1.0	0.0	220.0	5	1.1	0.9				
	823	2	0.0	0.0	0.0	0.0	0	1.0	0.0	380.0	5	1.1	0.9				
	839	1	0.0	0.0	0.0	8.17514	0	1.0	0.0	380.0	5	1.1	0.9				
	851	2	0.0	0.0	0.0	0.0	0	1.0	0.0	220.0	5	1.1	0.9				
	858	2	0.0	0.0	0.0	0.0	0	1.0	0.0	380.0	5	1.1	0.9				
	870	1	110.00000000000001	3.4000000000000004	0.0	11.95	0	1.0	0.0	220.0	5	1.1	0.9				
	871	1	108.89	-21.76	0.0	3.72	0	1.0	0.0	220.0	5	1.1	0.9				
	883	1	192.5	78.3	0.0	6.65	0	1.0	0.0	220.0	5	1.1	0.9				
	891	2	0.0	0.0	0.0	0.0	0	1.0	0.0	380.0	5	1.1	0.9				
	892	1	0.0	0.0	0.0	9.1	0	1.0	0.0	220.0	5	1.1	0.9				
	900	1	0.0	0.0	0.0	0.15	0	1.0	0.0	220.0	5	1.1	0.9				
	903	1	82.69	20.1	0.0	1.36	0	1.0	0.0	220.0	5	1.1	0.9				
	905	1	631.71	-54.16	0.0	7.534129	0	1.0	0.0	380.0	5	1.1	0.9				
	907	1	0.0	0.0	0.0	0.05	0	1.0	0.0	220.0	5	1.1	0.9				
	908	1	125.9	-0.5	0.0	0.21	0	1.0	0.0	220.0	5	1.1	0.9				
	920	1	34.44	8.5	0.0	1.11	0	1.0	0.0	220.0	5	1.1	0.9				
	923	1	62.07	14.7	0.0	4.84	0	1.0	0.0	220.0	5	1.1	0.9				
	933	1	0.0	0.0	0.0	22.75	0	1.0	0.0	220.0	5	1.1	0.9				
	935	1	0.0	0.0	0.0	9.46	0	1.0	0.0	220.0	5	1.1	0.9				
	953	1	108.7	-12.15	0.0	37.11	0	1.0	0.0	380.0	5	1.1	0.9				
	954	1	66.27	13.600000000000001	0.0	0.67	0	1.0	0.0	220.0	5	1.1	0.9				
	960	1	0.0	0.0	0.0	108.72860199999998	0	1.0	0.0	380.0	5	1.1	0.9				
	964	1	88.5	16.5	0.0	146.44	0	1.0	0.0	380.0	5	1.1	0.9				
	972	2	0.0	0.0	0.0	0.0	0	1.0	0.0	380.0	5	1.3	0.7				
	980	1	14.71	4.6	0.0	7.88	0	1.0	0.0	220.0	5	1.1	0.9				
	1001	2	0.0	0.0	0.0	0.0	0	1.0	0.0	220.0	5	1.1	0.9				
	1002	2	0.0	0.0	0.0	0.0	0	1.0	0.0	220.0	5	1.1	0.9				
	1005	1	0.0	0.0	0.0	0.8100000000000002	0	1.0	0.0	220.0	5	1.1	0.9				
	1015	1	44.55	0.0	0.0	4.78	0	1.0	0.0	220.0	5	1.1	0.9				
	1026	1	201.40000000000003	53.0	0.0	9.67	0	1.0	0.0	220.0	5	1.1	0.9				
	1027	1	-5.91	-2.33	0.0	30.393595	0	1.0	0.0	380.0	5	1.1	0.9				
	1033	1	26.33	5.3	0.0	4.31	0	1.0	0.0	220.0	5	1.1	0.9				
	1035	1	382.5	57.9	0.0	8.16	0	1.0	0.0	220.0	5	1.1	0.9				
	1039	1	34.64	0.0	0.0	0.91	0	1.0	0.0	220.0	5	1.1	0.9				
	1040	1	31.94	8.8	0.0	3.7900000000000005	0	1.0	0.0	220.0	5	1.1	0.9				
	1043	2	0.0	0.0	0.0	0.0	0	1.0	0.0	380.0	5	1.1	0.9				
	1051	1	0.0	0.0	0.0	3.7900000000000005	0	1.0	0.0	220.0	5	1.1	0.9				
	1077	1	0.0	0.0	0.0	0.1	0	1.0	0.0	220.0	5	1.1	0.9				
	1078	1	0.0	0.0	0.0	4.74	0	1.0	0.0	220.0	5	1.1	0.9				
	1081	1	277.86	58.95	0.0	182.880644	0	1.0	0.0	380.0	5	1.1	0.9				
	1083	2	0.0	0.0	0.0	0.0	0	1.0	0.0	220.0	5	1.1	0.9				
	1090	1	56.06	18.7	0.0	4.24	0	1.0	0.0	220.0	5	1.1	0.9				
	1093	2	0.0	0.0	0.0	0.0	0	1.0	0.0	380.0	5	1.1	0.9				
	1096	1	0.0	0.0	0.0	0.16	0	1.0	0.0	220.0	5	1.1	0.9				
	1100	2	0.0	0.0	0.0	0.0	0	1.0	0.0	220.0	5	1.1	0.9				
	1101	1	0.0	0.0	0.0	2.05	0	1.0	0.0	220.0	5	1.1	0.9				
	1102	2	0.0	0.0	0.0	0.0	0	1.0	0.0	220.0	5	1.1	0.9				
	1105	1	29.830000000000002	7.3	0.0	6.49	0	1.0	0.0	220.0	5	1.1	0.9				
	1111	1	0.0	0.0	0.0	1.1	0	1.0	0.0	220.0	5	1.1	0.9				
	1129	1	190.47	55.03	0.0	6.7	0	1.0	0.0	220.0	5	1.1	0.9				
	1136	1	16.22	2.0	0.0	0.71	0	1.0	0.0	220.0	5	1.1	0.9				
	1137	1	0.0	0.0	0.0	0.05	0	1.0	0.0	220.0	5	1.1	0.9				
	1146	1	32.84	0.0	0.0	1.41	0	1.0	0.0	220.0	5	1.1	0.9				
	1151	1	0.0	0.0	0.0	18.82	0	1.0	0.0	220.0	5	1.1	0.9				
	1153	1	12.41	3.9	0.0	2.23	0	1.0	0.0	220.0	5	1.1	0.9				
	1156	1	65.67	24.0	0.0	9.95	0	1.0	0.0	220.0	5	1.1	0.9				
	1159	1	112.4	13.0	0.0	3.9900000000000007	0	1.0	0.0	220.0	5	1.1	0.9				
	1172	1	0.0	0.0	0.0	2.3	0	1.0	0.0	220.0	5	1.1	0.9				
	1179	1	86.6	23.4	0.0	0.39	0	1.0	0.0	220.0	5	1.1	0.9				
	1183	1	199.4	-19.9	0.0	6.68	0	1.0	0.0	220.0	5	1.1	0.9				
	1187	1	67.57	21.2	0.0	5.71	0	1.0	0.0	220.0	5	1.1	0.9				
	1188	1	30.930000000000003	6.6000000000000005	0.0	9.09	0	1.0	0.0	220.0	5	1.1	0.9				
	1194	1	129.6	13.3	0.0	13.98	0	1.0	0.0	380.0	5	1.1	0.9				
	1198	1	0.0	0.0	0.0	30.637696	0	1.0	0.0	380.0	5	1.1	0.9				
	1201	1	114.1	23.5	0.0	1.08	0	1.0	0.0	220.0	5	1.1	0.9				
	1216	1	0.0	0.0	0.0	4.93	0	1.0	0.0	220.0	5	1.1	0.9				
	1233	1	0.0	0.0	0.0	1.72	0	1.0	0.0	220.0	5	1.1	0.9				
	1234	1	71.78	17.9	0.0	1.96	0	1.0	0.0	220.0	5	1.1	0.9				
	1237	2	0.0	0.0	0.0	0.0	0	1.0	0.0	380.0	5	1.3	0.7				
	1248	1	0.0	0.0	0.0	1.17	0	1.0	0.0	220.0	5	1.1	0.9				
	1249	1	348.93	26.47	0.0	9.36	0	1.0	0.0	380.0	5	1.1	0.9				
	1251	2	0.0	0.0	0.0	0.0	0	1.0	0.0	380.0	5	1.1	0.9				
	1262	1	0.0	0.0	0.0	10.73	0	1.0	0.0	220.0	5	1.1	0.9				
	1265	1	173.0	-21.3	0.0	5.93	0	1.0	0.0	220.0	5	1.1	0.9				
	1275	1	52.459999999999994	2.9	0.0	0.35	0	1.0	0.0	220.0	5	1.1	0.9				
	1295	2	0.0	0.0	0.0	0.0	0	1.0	0.0	220.0	5	1.1	0.9				
	1301	1	479.0	99.2	0.0	10.68	0	1.0	0.0	220.0	5	1.1	0.9				
	1305	1	0.0	0.0	0.0	4.34	0	1.0	0.0	220.0	5	1.1	0.9				
	1311	1	37.94	15.2	0.0	35.31	0	1.0	0.0	380.0	5	1.1	0.9				
	1326	1	0.0	0.0	0.0	0.98	0	1.0	0.0	220.0	5	1.1	0.9				
	1334	1	0.0	0.0	0.0	0.59	0	1.0	0.0	220.0	5	1.1	0.9				
	1341	2	0.0	0.0	0.0	0.0	0	1.0	0.0	220.0	5	1.1	0.9				
	1343	1	0.0	0.0	0.0	58.3	0	1.0	0.0	380.0	5	1.1	0.9				
	1354	2	0.0	0.0	0.0	0.0	0	1.0	0.0	220.0	5	1.1	0.9				
	1355	1	-3.29	-1.32	0.0	190.704588	0	1.0	0.0	380.0	5	1.1	0.9				
	1364	1	40.85	14.499999999999998	0.0	0.59	0	1.0	0.0	220.0	5	1.1	0.9				
	1380	1	145.2	21.4	0.0	1.09	0	1.0	0.0	220.0	5	1.1	0.9				
	1394	1	30.930000000000003	7.6	0.0	4.69	0	1.0	0.0	220.0	5	1.1	0.9				
	1397	1	0.0	0.0	0.0	2.14	0	1.0	0.0	220.0	5	1.1	0.9				
	1398	1	196.7	44.2	0.0	0.1	0	1.0	0.0	220.0	5	1.1	0.9				
	1401	1	11.91	2.9	0.0	5.27	0	1.0	0.0	220.0	5	1.1	0.9				
...
];

%% generator data
%    bus    Pg    Qg    Qmax    Qmin    Vg    mBase    status    Pmax    Pmin    Pc1    Pc2    Qc1min    Qc1max    Qc2min    Qc2max    ramp_agc    ramp_10    ramp_30    ramp_q    apf
mpc.gen = [
	124	666.665	133.865	440.32	-172.59	1.0	100.0	1	1000.0	333.33															
	150	80.0	27.275	77.09	-22.54	1.0	100.0	1	160.0	0.0															
	221	-53.59	59.31000000000001	183.92	-65.3	1.0	100.0	1	100.0	-207.18															
	338	60.0	18.19	55.54	-19.16	1.0	100.0	1	120.0	0.0															
	352	1333.335	314.335	926.35	-297.68	1.0	100.0	1	2000.0	666.67															
	413	140.0	37.14	124.12	-49.84	1.0	100.0	1	280.0	0.0															
	453	270.0	91.415	257.23	-74.4	1.0	100.0	1	540.0	0.0															
	516	400.0	77.56	261.79	-106.67	1.0	100.0	1	600.0	200.0															
	564	15.555	-0.44	18.47	-19.35	1.0	100.0	1	100.0	-68.89															
	583	-130.0	5.425	17.88	-7.03	1.0	100.0	1	100.0	-360.0															
	615	20.0	4.65	17.09	-7.79	1.0	100.0	1	40.0	0.0															
	616	320.0	68.37	217.90000000000003	-81.16	1.0	100.0	1	480.0	160.0															
	639	19.2	48.31	135.52	-38.9	1.0	100.0	1	100.0	-61.6															
	682	40.0	13.855	38.77	-11.06	1.0	100.0	1	80.0	0.0															
	749	120.0	30.925000000000004	105.69	-43.84	1.0	100.0	1	240.0	0.0															
	757	60.0	13.944999999999999	51.300000000000004	-23.41	1.0	100.0	1	120.0	0.0															
	776	-24.265	5.715	18.16	-6.7299999999999995	1.0	100.0	1	100.0	-148.53															
	778	16.79	1.505	12.37	-9.36	1.0	100.0	1	33.58	0.0															
	795	40.0	11.855	36.75	-13.04	1.0	100.0	1	80.0	0.0															
	803	-9.465	24.245	74.03	-25.540000000000003	1.0	100.0	1	100.0	-118.93															
	823	1333.335	314.185	926.68	-298.31	1.0	100.0	1	2000.0	666.67															
	851	100.0	34.415	96.64	-27.810000000000002	1.0	100.0	1	200.0	0.0															
	858	666.665	134.26	440.66999999999996	-172.15	1.0	100.0	1	1000.0	333.33															
	891	1600.0	361.75	1097.41	-373.91	1.0	100.0	1	2400.0	800.0															
	972	1333.335	321.605	934.73	-291.52	1.0	100.0	1	2000.0	666.67															
	1001	60.0	17.605	55.02	-19.81	1.0	100.0	1	120.0	0.0															
	1002	100.0	27.200000000000003	89.55	-35.15	1.0	100.0	1	200.0	0.0															
	1043	600.0	112.23999999999998	387.88	-163.4	1.0	100.0	1	900.0	300.0															
	1083	60.0	17.515	54.90999999999999	-19.88	1.0	100.0	1	120.0	0.0															
	1093	800.0	182.77	550.69	-185.15	1.0	100.0	1	1200.0	400.0															
	1100	40.0	11.895	36.8	-13.01	1.0	100.0	1	80.0	0.0															
	1102	-32.77	13.23	38.05	-11.59	1.0	100.0	1	100.0	-165.54															
	1237	1333.335	293.585	906.61	-319.44	1.0	100.0	1	2000.0	666.67															
	1251	800.0	182.77	550.69	-185.15	1.0	100.0	1	1200.0	400.0															
	1295	-32.735	12.02	36.92	-12.879999999999999	1.0	100.0	1	100.0	-165.47															
	1341	60.0	19.705	57.03	-17.62	1.0	100.0	1	120.0	0.0															
	1354	-114.33499999999998	13.175	38.08	-11.73	1.0	100.0	1	100.0	-328.67															
	1422	-17.335	5.65	18.09	-6.79	1.0	100.0	1	100.0	-134.67															
	1436	40.0	12.814999999999998	37.72	-12.09	1.0	100.0	1	80.0	0.0															
	1478	40.0	11.48	36.4	-13.44	1.0	100.0	1	80.0	0.0															
	1604	40.0	12.744999999999997	37.66	-12.17	1.0	100.0	1	80.0	0.0															
	1642	40.0	12.814999999999998	37.74	-12.11	1.0	100.0	1	80.0	0.0															
	1680	1333.335	316.395	928.89	-296.1	1.0	100.0	1	2000.0	666.67															
	1708	666.665	133.035	439.37	-173.3	1.0	100.0	1	1000.0	333.33															
	1721	20.0	6.065	18.52	-6.39	1.0	100.0	1	40.0	0.0															
	1754	20.53	4.535	16.99	-7.919999999999999	1.0	100.0	1	41.06	0.0															
	1794	1333.335	314.335	926.35	-297.68	1.0	100.0	1	2000.0	666.67															
	1808	49.6	36.535	111.23	-38.16	1.0	100.0	1	100.0	-0.8															
	1851	15.960000000000003	1.435	11.76	-8.89	1.0	100.0	1	31.920000000000005	0.0															
	1852	-111.20000000000002	20.82	58.160000000000004	-16.52	1.0	100.0	1	100.0	-322.4															
	1888	612.78	120.095	396.02	-155.83	1.0	100.0	1	912.7800000000001	312.78															
	1914	255.755	4.705	160.36	-150.95	1.0	100.0	1	472.16	39.35															
	1959	20.0	5.695	18.14	-6.75	1.0	100.0	1	40.0	0.0															
	2035	666.665	135.29	441.84999999999997	-171.27	1.0	100.0	1	1000.0	333.33															
	2050	1333.335	349.275	962.2	-263.65	1.0	100.0	1	2000.0	666.67															
	2085	100.0	26.1	88.39	-36.19	1.0	100.0	1	200.0	0.0															
	2177	-30.865	21.045	58.35	-16.26	1.0	100.0	1	100.0	-161.73															
	2197	14.475	2.385	19.51	-14.74	1.0	100.0	1	100.0	-71.05															
	2276	59.650000000000006	2.585	41.67	-36.5	1.0	100.0	1	119.30000000000001	0.0															
	2291	100.0	33.38	95.69	-28.93	1.0	100.0	1	200.0	0.0															
	2359	40.0	9.425	34.35	-15.5	1.0	100.0	1	80.0	0.0															
	2421	-163.6	12.47	37.39	-12.45	1.0	100.0	1	100.0	-427.20000000000005															
	2425	-17.0	16.905	54.29999999999999	-20.49	1.0	100.0	1	100.0	-134.0															
	2426	21.2	3.16	105.34000000000002	-99.02	1.0	100.0	1	100.0	-57.60000000000001															
	2446	1333.335	308.445	921.6200000000001	-304.73	1.0	100.0	1	2000.0	666.67															
	2468	40.0	13.105	38.02	-11.81	1.0	100.0	1	80.0	0.0															
	2481	40.0	14.205000000000002	39.12	-10.71	1.0	100.0	1	80.0	0.0															
	2489	180.0	50.305	162.4	-61.79	1.0	100.0	1	360.0	0.0															
	2550	60.0	20.87	58.22999999999999	-16.49	1.0	100.0	1	120.0	0.0															
	2600	80.0	26.245	76.08	-23.59	1.0	100.0	1	160.0	0.0															
	2627	1333.335	308.365	921.52	-304.79	1.0	100.0	1	2000.0	666.67															
	2653	60.0	14.57	51.94	-22.8	1.0	100.0	1	120.0	0.0															
	2719	98.36	6.025	70.15	-58.099999999999994	1.0	100.0	1	196.72	0.0															
	2786	1333.335	321.67	934.8099999999998	-291.47	1.0	100.0	1	2000.0	666.67															
	2797	-13.4	26.0	88.33	-36.33	1.0	100.0	1	100.0	-126.8															
	2799	80.0	28.125	77.91	-21.66	1.0	100.0	1	160.0	0.0															
	2816	1333.335	314.26	926.2599999999999	-297.74	1.0	100.0	1	2000.0	666.67															
	2841	60.0	18.61	55.98	-18.76	1.0	100.0	1	120.0	0.0															
	2842	20.0	5.725	18.19	-6.74	1.0	100.0	1	40.0	0.0															
	2872	4.525	0.385	3.3099999999999996	-2.54	1.0	100.0	1	9.05	0.0															
	2878	107.43	2.12	72.95	-68.71	1.0	100.0	1	214.86	0.0															
	2886	60.0	20.335	57.69	-17.02	1.0	100.0	1	120.0	0.0															
	2902	20.0	6.735	19.19	-5.72	1.0	100.0	1	40.0	0.0															
	2930	40.0	12.35	37.24	-12.54	1.0	100.0	1	80.0	0.0															
	2934	3.415	0.3	2.51	-1.91	1.0	100.0	1	6.83	0.0															
	2985	246.675	25.895000000000003	184.46	-132.67	1.0	100.0	1	493.35	0.0															
	3018	100.0	27.394999999999996	89.61	-34.82	1.0	100.0	1	200.0	0.0															
	3028	666.665	135.29	441.84999999999997	-171.27	1.0	100.0	1	1000.0	333.33															
	3114	20.0	4.86	17.33	-7.61	1.0	100.0	1	40.0	0.0															
	3133	120.0	39.205	113.97	-35.56	1.0	100.0	1	240.0	0.0															
	3134	-40.865	20.46	70.25	-29.330000000000002	1.0	100.0	1	100.0	-181.73															
	3183	60.0	16.36	53.7	-20.98	1.0	100.0	1	120.0	0.0															
	3205	270.0	77.575	243.61	-88.46	1.0	100.0	1	540.0	0.0															
	3218	-21.6	11.895	36.79	-13.0	1.0	100.0	1	100.0	-143.2															
	3240	21.8	5.43	62.23	-51.36999999999999	1.0	100.0	1	100.0	-56.39999999999999															
	3306	666.665	132.885	439.19999999999993	-173.43	1.0	100.0	1	1000.0	333.33															
	3324	32.35	13.245	38.13	-11.64	1.0	100.0	1	100.0	-35.3															
	3346	40.0	12.17	37.1	-12.76	1.0	100.0	1	80.0	0.0															
	3353	40.0	13.295000000000002	38.2	-11.61	1.0	100.0	1	80.0	0.0															
	3364	67.635	2.875	47.19	-41.44	1.0	100.0	1	135.27	0.0															
	3390	60.0	17.2	54.59	-20.19	1.0	100.0	1	120.0	0.0															
	3422	60.0	20.845	58.19	-16.5	1.0	100.0	1	120.0	0.0															
	3436	800.0	183.04	550.97	-184.89	1.0	100.0	1	1200.0	400.0															
	3492	-197.2	16.335	53.75	-21.08	1.0	100.0	1	100.0	-494.4															
	3513	600.0	112.23999999999998	387.88	-163.4	1.0	100.0	1	900.0	300.0															
	3565	40.0	13.930000000000001	38.83	-10.97	1.0	100.0	1	80.0	0.0															
	3580	300.0	77.17	261.7	-107.35999999999999	1.0	100.0	1	600.0	0.0															
	3611	-33.6	17.235	54.59	-20.12	1.0	100.0	1	100.0	-167.2															
	3656	32.535	41.375	116.06999999999998	-33.32	1.0	100.0	1	100.0	-34.93															
	3661	666.665	134.495	441.04	-172.05	1.0	100.0	1	1000.0	333.33															
	3698	41.61	11.435	36.34	-13.47	1.0	100.0	1	100.0	-16.78															
	3741	800.0	180.705	548.57	-187.16	1.0	100.0	1	1200.0	400.0															
	3809	466.6650000000001	98.14	313.01	-116.73	1.0	100.0	1	700.0	233.32999999999998															
	3825	600.0	112.385	388.17	-163.4	1.0	100.0	1	900.0	300.0															
	3869	666.665	134.275	440.69000000000005	-172.14	1.0	100.0	1	1000.0	333.33															
	3876	33.265	9.375	34.27	-15.52	1.0	100.0	1	100.0	-33.47															
	3916	35.815	13.125	38.02	-11.77	1.0	100.0	1	100.0	-28.37															
	3951	31.934999999999995	-0.7	126.16000000000001	-127.56	1.0	100.0	1	100.0	-36.13															
	3971	-39.665	18.29	55.669999999999995	-19.09	1.0	100.0	1	100.0	-179.33															
	4024	100.0	34.815	97.07	-27.440000000000005	1.0	100.0	1	200.0	0.0															
	4056	-1.265	13.140000000000002	38.05	-11.77	1.0	100.0	1	100.0	-102.53000000000002															
	4084	300.0	80.6	264.94	-103.73999999999998	1.0	100.0	1	600.0	0.0															
	4118	40.0	13.485	38.37	-11.4	1.0	100.0	1	80.0	0.0															
	4125	40.0	11.945	36.89	-13.0	1.0	100.0	1	80.0	0.0															
	4128	60.0	19.7	57.03	-17.63	1.0	100.0	1	120.0	0.0															
	4231	2761.14	0.0	99999.0	-99999.0	1.0	100.0	1	4188.95	1333.33															
	4331	40.0	11.805	36.73	-13.119999999999997	1.0	100.0	1	80.0	0.0															
	4395	-36.065	13.574999999999998	38.48	-11.33	1.0	100.0	1	100.0	-172.13															
	4419	666.665	134.495	441.04	-172.05	1.0	100.0	1	1000.0	333.33															
	4480	666.665	132.885	439.19999999999993	-173.43	1.0	100.0	1	1000.0	333.33															
	4482	40.0	13.95	38.85	-10.95	1.0	100.0	1	80.0	0.0															
	4506	-64.535	12.955	37.86	-11.95	1.0	100.0	1	100.0	-229.06999999999996															
	4566	29.744999999999997	13.035	37.94	-11.87	1.0	100.0	1	100.0	-40.51															
	4624	40.0	10.715	35.62	-14.19	1.0	100.0	1	80.0	0.0															
	4661	-2.6	6.685	19.14	-5.77	1.0	100.0	1	100.0	-105.2															
	4701	140.925	6.055	98.4	-86.29	1.0	100.0	1	281.85	0.0															
	4783	666.665	132.885	439.19999999999993	-173.43	1.0	100.0	1	1000.0	333.33															
	4816	32.615	13.465	38.37	-11.44	1.0	100.0	1	100.0	-34.77															
	4819	666.665	134.275	440.69000000000005	-172.14	1.0	100.0	1	1000.0	333.33															
	4823	5.23	1.185	4.44	-2.07	1.0	100.0	1	10.46	0.0															
	4850	80.0	26.665	76.52	-23.19	1.0	100.0	1	160.0	0.0															
	4880	23.135	25.83	75.62	-23.96	1.0	100.0	1	100.0	-53.73															
	4918	40.0	12.35	37.27	-12.57	1.0	100.0	1	80.0	0.0															
	4952	41.615	12.31	37.23	-12.61	1.0	100.0	1	100.0	-16.77															
	5004	110.06	2.16	74.73	-70.41	1.0	100.0	1	220.12	0.0															
	5019	40.0	12.814999999999998	37.72	-12.09	1.0	100.0	1	80.0	0.0															
	5051	80.0	24.79	74.55	-24.97	1.0	100.0	1	160.0	0.0															
	5067	300.0	74.665	258.91	-109.57999999999998	1.0	100.0	1	600.0	0.0															
	5110	14.995	13.390000000000002	38.28	-11.5	1.0	100.0	1	100.0	-70.01															
	5120	60.0	18.965	56.35	-18.42	1.0	100.0	1	120.0	0.0															
	5144	1333.335	269.81	882.86	-343.24	1.0	100.0	1	2000.0	666.67															
	5237	80.0	25.14	75.02	-24.74	1.0	100.0	1	160.0	0.0															
	5278	60.0	13.905000000000001	51.300000000000004	-23.49	1.0	100.0	1	120.0	0.0															
	5340	-56.00000000000001	11.47	36.37	-13.43	1.0	100.0	1	100.0	-212.0															
	5365	20.0	5.695	18.14	-6.75	1.0	100.0	1	40.0	0.0															
	5379	1333.335	314.42	926.4699999999999	-297.63	1.0	100.0	1	2000.0	666.67															
	5395	-213.865	20.7	58.06	-16.66	1.0	100.0	1	100.0	-527.73															
	5461	40.0	13.355	38.26	-11.55	1.0	100.0	1	80.0	0.0															
	5481	1333.335	307.335	920.31	-305.64	1.0	100.0	1	2000.0	666.67															
	5482	124.53	26.6	101.32	-48.12	1.0	100.0	1	249.06	0.0															
	5486	666.665	134.495	441.04	-172.05	1.0	100.0	1	1000.0	333.33															
	5488	-14.265	12.58	37.49	-12.33	1.0	100.0	1	100.0	-128.53															
	5490	2666.665	539.345	1765.3599999999997	-686.67	1.0	100.0	1	4000.0	1333.33															
	5533	100.0	26.58	88.87	-35.71	1.0	100.0	1	200.0	0.0															
	5546	20.0	6.705	19.16	-5.75	1.0	100.0	1	40.0	0.0															
	5564	40.0	11.905	36.8	-12.990000000000002	1.0	100.0	1	80.0	0.0															
	5658	120.0	28.465	103.18	-46.25	1.0	100.0	1	240.0	0.0															
	5664	80.0	22.83	72.71	-27.05	1.0	100.0	1	160.0	0.0															
	5709	800.0	182.77	550.69	-185.15	1.0	100.0	1	1200.0	400.0															
	5781	1200.0	227.25	779.29	-324.79	1.0	100.0	1	1800.0	600.0															
	5814	293.335	59.904999999999994	196.98	-77.17	1.0	100.0	1	440.00000000000006	146.67															
	5856	320.0	64.565	214.12999999999997	-85.0	1.0	100.0	1	480.0	160.0															
	5881	40.0	11.795	36.72	-13.13	1.0	100.0	1	80.0	0.0															
	5940	0.065	4.74	17.21	-7.73	1.0	100.0	1	100.0	-99.87															
	5971	1333.335	321.45	934.54	-291.64	1.0	100.0	1	2000.0	666.67															
	5983	-18.335	12.34	37.27	-12.590000000000002	1.0	100.0	1	100.0	-136.67															
	5994	-8.2	-0.285	60.51	-61.08	1.0	100.0	1	100.0	-116.40000000000002															
	6036	600.0	114.62	390.4	-161.16	1.0	100.0	1	900.0	300.0															
	6153	401.00999999999993	-6.085	249.65	-261.82	1.0	100.0	1	769.94	32.08															
	6168	26.88	2.465	19.86	-14.93	1.0	100.0	1	53.76	0.0															
	6291	60.0	20.76	58.11999999999999	-16.6	1.0	100.0	1	120.0	0.0															
	6331	40.0	12.855	37.76	-12.05	1.0	100.0	1	80.0	0.0															
	6332	100.0	34.305	96.56	-27.949999999999996	1.0	100.0	1	200.0	0.0															
	6351	40.0	13.364999999999998	38.29	-11.56	1.0	100.0	1	80.0	0.0															
	6368	-46.865	13.825	51.11	-23.46	1.0	100.0	1	100.0	-193.73															
	6376	31.465	48.96	148.65	-50.73	1.0	100.0	1	100.0	-37.07															
	6429	100.0	26.57	88.83	-35.69	1.0	100.0	1	200.0	0.0															
	6474	666.665	132.285	438.72	-174.15	1.0	100.0	1	1000.0	333.33															
	6516	140.0	39.45	126.73	-47.83	1.0	100.0	1	280.0	0.0															
	6552	-86.135	12.710000000000003	37.58	-12.16	1.0	100.0	1	100.0	-272.27															
	6734	360.0	89.715	311.52	-132.09	1.0	100.0	1	720.0	0.0															
	6807	80.0	27.339999999999996	77.14	-22.46	1.0	100.0	1	160.0	0.0															
	6816	80.0	27.545	77.35	-22.26	1.0	100.0	1	160.0	0.0															
	6820	16.265	1.465	11.99	-9.06	1.0	100.0	1	32.53	0.0															
	6831	11.665	10.685	35.62	-14.249999999999998	1.0	100.0	1	100.0	-76.67															
	6845	60.0	15.885	53.239999999999995	-21.47	1.0	100.0	1	120.0	0.0															
	6852	-179.935	6.11	18.56	-6.34	1.0	100.0	1	100.0	-459.87															
	6857	2666.665	639.94	1865.8300000000002	-585.95	1.0	100.0	1	4000.0	1333.33															
	6888	194.335	64.72	189.31	-59.870000000000005	1.0	100.0	1	300.0	88.67															
	6947	140.0	38.9	126.09000000000002	-48.29	1.0	100.0	1	280.0	0.0															
...
];

%% branch data
%    f_bus    t_bus    r    x    b    rateA    rateB    rateC    ratio    angle    status    angmin    angmax
mpc.branch = [
	7351	5441	0.00018	0.000781	0.0	39412.0	39412.0	39412.0	0	0	1	-29.999999999999996	29.999999999999996								
	4314	7571	0.002961	0.01669	0.0	319.0	1864.0	1864.0	0	0	1	-29.999999999999996	29.999999999999996								
	5803	3916	0.00056	0.00432	0.0	7252.0	7252.0	7252.0	0	0	1	-29.999999999999996	29.999999999999996								
	6757	6036	0.0002	0.00246	0.0	657.0	12799.0	12799.0	0	0	1	-29.999999999999996	29.999999999999996								
	6757	6921	0.0003	0.00377	0.0	1315.0	8353.0	8353.0	0	0	1	-29.999999999999996	29.999999999999996								
	5019	9112	0.00014	0.00057	0.0	53816.99999999999	53816.99999999999	53816.99999999999	0	0	1	-29.999999999999996	29.999999999999996								
	2930	9112	0.00013	0.000729	0.0	42657.0	42657.0	42657.0	0	0	1	-29.999999999999996	29.999999999999996								
	1436	9112	0.00012	0.000581	0.0	53244.00000000001	53244.00000000001	53244.00000000001	0	0	1	-29.999999999999996	29.999999999999996								
	1851	9112	0.00011	0.00064	0.0	48642.0	48642.0	48642.0	0	0	1	-29.999999999999996	29.999999999999996								
	8331	9112	0.00019	0.00056	0.0	53416.0	53416.0	53416.0	0	0	1	-29.999999999999996	29.999999999999996								
	6220	8791	0.00062	0.004909	0.0	529.0	6384.0	6384.0	0	0	1	-29.999999999999996	29.999999999999996								
	9203	7842	7.0e-5	0.00076	0.0	886.9999999999999	41388.0	41388.0	0	0	1	-29.999999999999996	29.999999999999996								
	9203	8997	0.00066	0.00622	0.0	1611.0	5051.0	5051.0	0	0	1	-29.999999999999996	29.999999999999996								
	9203	2129	0.00054	0.00752	0.0	4190.0	4190.0	4190.0	0	0	1	-29.999999999999996	29.999999999999996								
	9203	29	0.00105	0.00877	0.0	1315.0	3577.0000000000005	3577.0000000000005	0	0	1	-29.999999999999996	29.999999999999996								
	118	8903	8.0e-5	0.00091	0.0	657.0	34578.0	34578.0	0	0	1	-29.999999999999996	29.999999999999996								
	118	4598	0.00056	0.00719	0.0	952.9999999999999	4380.0	4380.0	0	0	1	-29.999999999999996	29.999999999999996								
	2426	5533	0.000531	0.002039	0.0	319.0	14991.999999999998	14991.999999999998	0	0	1	-29.999999999999996	29.999999999999996								
	2426	4831	0.008659	0.03769	0.0	300.0	817.0	817.0	0	0	1	-29.999999999999996	29.999999999999996								
	2426	8961	0.003849	0.021099	0.0	1473.0	1473.0	1473.0	0	0	1	-29.999999999999996	29.999999999999996								
	2426	8522	0.00688	0.035969	0.0	300.0	863.0000000000001	863.0000000000001	0	0	1	-29.999999999999996	29.999999999999996								
	2426	6888	0.006729	0.03713	0.0	838.0000000000001	838.0000000000001	838.0000000000001	0	0	1	-29.999999999999996	29.999999999999996								
	2426	3401	0.00111	0.006651	0.0	413.99999999999994	4685.0	4685.0	0	0	1	-29.999999999999996	29.999999999999996								
	2426	641	0.0023	0.008909	0.0	3433.0	3433.0	3433.0	0	0	1	-29.999999999999996	29.999999999999996								
	2426	2600	0.000841	0.00313	0.0	9747.0	9747.0	9747.0	0	0	1	-29.999999999999996	29.999999999999996								
	2426	5351	0.003521	0.017479	0.0	300.0	1772.0	1772.0	0	0	1	-29.999999999999996	29.999999999999996								
	3051	718	3.9e-5	0.00025	0.0	509.99999999999994	124840.00000000001	124840.00000000001	0	0	1	-29.999999999999996	29.999999999999996								
	3036	2327	0.000159	0.000729	0.0	357.0	42335.0	42335.0	0	0	1	-29.999999999999996	29.999999999999996								
	8651	7473	0.005281	0.032099	0.0	395.0	972.0000000000001	972.0000000000001	0	0	1	-29.999999999999996	29.999999999999996								
	8651	7473	0.005651	0.029419	0.0	376.0	1055.0	1055.0	0	0	1	-29.999999999999996	29.999999999999996								
	903	3654	0.000271	0.00036	0.0	70101.0	70101.0	70101.0	0	0	1	-29.999999999999996	29.999999999999996								
	8732	7050	0.00044	0.00143	0.0	472.0	21113.0	21113.0	0	0	1	-29.999999999999996	29.999999999999996								
	8732	3912	0.000159	0.00074	0.0	453.0	41734.0	41734.0	0	0	1	-29.999999999999996	29.999999999999996								
	2273	1973	0.00019	0.000591	0.0	338.0	50883.0	50883.0	0	0	1	-29.999999999999996	29.999999999999996								
	5131	2928	0.00019	0.00087	0.0	35472.0	35472.0	35472.0	0	0	1	-29.999999999999996	29.999999999999996								
	6629	4918	0.002591	0.013659	0.0	319.0	2273.0	2273.0	0	0	1	-29.999999999999996	29.999999999999996								
	6629	7309	0.00305	0.01168	0.0	2617.0	2617.0	2617.0	0	0	1	-29.999999999999996	29.999999999999996								
	413	1102	0.000159	0.000599	0.0	433.0	50969.0	50969.0	0	0	1	-29.999999999999996	29.999999999999996								
	413	1102	0.000159	0.00062	0.0	395.0	49351.0	49351.0	0	0	1	-29.999999999999996	29.999999999999996								
	3248	4918	0.00101	0.004229	0.0	472.0	7265.000000000001	7265.000000000001	0	0	1	-29.999999999999996	29.999999999999996								
	3248	4281	0.00319	0.018651	0.0	453.0	1670.0	1670.0	0	0	1	-29.999999999999996	29.999999999999996								
	3248	7309	0.000729	0.00337	0.0	9162.0	9162.0	9162.0	0	0	1	-29.999999999999996	29.999999999999996								
	1146	1187	0.002961	0.012831	0.0	281.0	2399.0	2399.0	0	0	1	-29.999999999999996	29.999999999999996								
	1146	7945	0.000591	0.00339	0.0	9180.0	9180.0	9180.0	0	0	1	-29.999999999999996	29.999999999999996								
	8900	2421	0.00024	0.001219	0.0	25425.0	25425.0	25425.0	0	0	1	-29.999999999999996	29.999999999999996								
	6071	2972	0.006219	0.036341	0.0	376.0	857.0	857.0	0	0	1	-29.999999999999996	29.999999999999996								
	6071	6031	0.001841	0.01193	0.0	472.0	2617.0	2617.0	0	0	1	-29.999999999999996	29.999999999999996								
	3293	7264	0.001409	0.01113	0.0	413.99999999999994	2816.0	2816.0	0	0	1	-29.999999999999996	29.999999999999996								
	3293	283	0.00151	0.00768	0.0	376.0	4036.0	4036.0	0	0	1	-29.999999999999996	29.999999999999996								
	3293	3069	0.00599	0.03313	0.0	395.0	939.0	939.0	0	0	1	-29.999999999999996	29.999999999999996								
	3293	3390	0.001771	0.010151	0.0	357.0	3066.0	3066.0	0	0	1	-29.999999999999996	29.999999999999996								
	4689	4936	0.00074	0.00311	0.0	9881.0	9881.0	9881.0	0	0	1	-29.999999999999996	29.999999999999996								
	4689	4936	0.000729	0.003159	0.0	9744.0	9744.0	9744.0	0	0	1	-29.999999999999996	29.999999999999996								
	3218	7809	0.005271	0.01906	0.0	281.0	1598.0	1598.0	0	0	1	-29.999999999999996	29.999999999999996								
	3218	5455	0.00906	0.053151	0.0	319.0	586.0	586.0	0	0	1	-29.999999999999996	29.999999999999996								
	3218	1857	0.00405	0.0153	0.0	1996.0	1996.0	1996.0	0	0	1	-29.999999999999996	29.999999999999996								
	6806	5410	0.00055	0.003961	0.0	395.0	7898.999999999999	7898.999999999999	0	0	1	-29.999999999999996	29.999999999999996								
	6806	5410	0.00055	0.003729	0.0	338.0	8381.0	8381.0	0	0	1	-29.999999999999996	29.999999999999996								
	6806	1609	0.00107	0.007789	0.0	413.99999999999994	4018.0	4018.0	0	0	1	-29.999999999999996	29.999999999999996								
	6806	1609	0.00112	0.00775	0.0	472.0	4034.0000000000005	4034.0000000000005	0	0	1	-29.999999999999996	29.999999999999996								
	6806	1609	0.001031	0.00775	0.0	4040.9999999999995	4040.9999999999995	4040.9999999999995	0	0	1	-29.999999999999996	29.999999999999996								
	6806	2438	0.00062	0.003219	0.0	9636.0	9636.0	9636.0	0	0	1	-29.999999999999996	29.999999999999996								
	6806	954	0.00068	0.002659	0.0	413.99999999999994	11510.0	11510.0	0	0	1	-29.999999999999996	29.999999999999996								
	9140	502	0.00193	0.012479	0.0	491.0	2502.0	2502.0	0	0	1	-29.999999999999996	29.999999999999996								
	9140	3013	0.001159	0.007229	0.0	4315.0	4315.0	4315.0	0	0	1	-29.999999999999996	29.999999999999996								
	9140	2949	0.00137	0.008729	0.0	395.0	3575.0	3575.0	0	0	1	-29.999999999999996	29.999999999999996								
	9140	2949	0.001401	0.00855	0.0	433.0	3646.0	3646.0	0	0	1	-29.999999999999996	29.999999999999996								
	9140	2949	0.001331	0.008521	0.0	433.0	3663.0000000000005	3663.0000000000005	0	0	1	-29.999999999999996	29.999999999999996								
	7070	2208	0.00031	0.00081	0.0	281.0	36421.0	36421.0	0	0	1	-29.999999999999996	29.999999999999996								
	7070	8060	0.000341	0.00119	0.0	281.0	25518.0	25518.0	0	0	1	-29.999999999999996	29.999999999999996								
	7070	4484	0.00031	0.001281	0.0	376.0	23967.0	23967.0	0	0	1	-29.999999999999996	29.999999999999996								
	7070	4239	0.00094	0.0035	0.0	433.0	8717.0	8717.0	0	0	1	-29.999999999999996	29.999999999999996								
	8535	7047	7.0e-5	0.000651	0.0	48244.0	48244.0	48244.0	0	0	1	-29.999999999999996	29.999999999999996								
	5477	3657	0.00019	0.00124	0.0	491.0	25180.0	25180.0	0	0	1	-29.999999999999996	29.999999999999996								
	5477	2928	0.000331	0.002539	0.0	433.0	12337.0	12337.0	0	0	1	-29.999999999999996	29.999999999999996								
	3145	2918	0.0016	0.02113	0.0	1491.0	1491.0	1491.0	0	0	1	-29.999999999999996	29.999999999999996								
	7770	5317	0.000909	0.004711	0.0	357.0	6584.0	6584.0	0	0	1	-29.999999999999996	29.999999999999996								
	7770	5317	0.00088	0.004969	0.0	319.0	6260.0	6260.0	0	0	1	-29.999999999999996	29.999999999999996								
	3	8676	0.001841	0.0088	0.0	3514.0	3514.0	3514.0	0	0	1	-29.999999999999996	29.999999999999996								
	3	8189	0.01013	0.04238	0.0	395.0	725.0	725.0	0	0	1	-29.999999999999996	29.999999999999996								
	7267	2938	0.00059	0.00802	0.0	723.0	3928.0	3928.0	0	0	1	-29.999999999999996	29.999999999999996								
	7267	2938	0.00054	0.0079	0.0	657.0	3990.0	3990.0	0	0	1	-29.999999999999996	29.999999999999996								
	7267	3918	0.00171	0.02128	0.0	986.0	1480.0	1480.0	0	0	1	-29.999999999999996	29.999999999999996								
	7267	3918	0.00174	0.02084	0.0	853.9999999999999	1511.0	1511.0	0	0	1	-29.999999999999996	29.999999999999996								
	7267	6581	0.00086	0.01433	0.0	1151.0	2201.0	2201.0	0	0	1	-29.999999999999996	29.999999999999996								
	7267	6581	0.00087	0.01404	0.0	723.0	2246.0	2246.0	0	0	1	-29.999999999999996	29.999999999999996								
	7267	3830	0.00126	0.01447	0.0	1118.0	2175.0	2175.0	0	0	1	-29.999999999999996	29.999999999999996								
	7267	5648	0.00122	0.01509	0.0	1052.0	2087.0	2087.0	0	0	1	-29.999999999999996	29.999999999999996								
	7267	5648	0.00154	0.019	0.0	1282.0	1657.9999999999998	1657.9999999999998	0	0	1	-29.999999999999996	29.999999999999996								
	4918	4907	0.00474	0.03564	0.0	472.0	878.9999999999999	878.9999999999999	0	0	1	-29.999999999999996	29.999999999999996								
	4918	5957	0.006	0.047849	0.0	433.0	656.0	656.0	0	0	1	-29.999999999999996	29.999999999999996								
	4918	5233	0.008039	0.03375	0.0	281.0	911.0	911.0	0	0	1	-29.999999999999996	29.999999999999996								
	6854	7309	2.1e-5	0.000211	0.0	509.99999999999994	148968.0	148968.0	0	0	1	-29.999999999999996	29.999999999999996								
	8311	3680	0.00045	0.002341	0.0	13251.0	13251.0	13251.0	0	0	1	-29.999999999999996	29.999999999999996								
	2770	8804	0.000669	0.004281	0.0	433.0	7291.0	7291.0	0	0	1	-29.999999999999996	29.999999999999996								
	9241	8804	0.00068	0.00419	0.0	7442.0	7442.0	7442.0	0	0	1	-29.999999999999996	29.999999999999996								
	3083	7124	0.000729	0.00431	0.0	509.99999999999994	7227.0	7227.0	0	0	1	-29.999999999999996	29.999999999999996								
	3083	7124	0.000591	0.004651	0.0	453.0	6738.0	6738.0	0	0	1	-29.999999999999996	29.999999999999996								
	3083	8873	0.00099	0.005081	0.0	338.0	6103.0	6103.0	0	0	1	-29.999999999999996	29.999999999999996								
	1566	7582	0.00212	0.013031	0.0	2393.0	2393.0	2393.0	0	0	1	-29.999999999999996	29.999999999999996								
	1566	3541	0.002159	0.01275	0.0	2443.0	2443.0	2443.0	0	0	1	-29.999999999999996	29.999999999999996								
	8683	3698	0.00025	0.00095	0.0	32156.0	32156.0	32156.0	0	0	1	-29.999999999999996	29.999999999999996								
	8683	3698	0.000271	0.00089	0.0	33953.0	33953.0	33953.0	0	0	1	-29.999999999999996	29.999999999999996								
	8683	2801	0.001961	0.012409	0.0	281.0	2515.0	2515.0	0	0	1	-29.999999999999996	29.999999999999996								
	8683	8328	0.00044	0.00207	0.0	472.0	14927.000000000002	14927.000000000002	0	0	1	-29.999999999999996	29.999999999999996								
	8683	8511	0.000469	0.00143	0.0	529.0	20990.0	20990.0	0	0	1	-29.999999999999996	29.999999999999996								
	8683	6570	0.001271	0.01406	0.0	529.0	2238.0	2238.0	0	0	1	-29.999999999999996	29.999999999999996								
	8683	6570	0.00124	0.013021	0.0	529.0	2415.0	2415.0	0	0	1	-29.999999999999996	29.999999999999996								
	8683	8975	0.000409	0.00239	0.0	13028.0	13028.0	13028.0	0	0	1	-29.999999999999996	29.999999999999996								
	8683	216	0.00094	0.005	0.0	338.0	6209.0	6209.0	0	0	1	-29.999999999999996	29.999999999999996								
	8683	2961	0.000219	0.0007	0.0	529.0	43067.0	43067.0	0	0	1	-29.999999999999996	29.999999999999996								
	8683	6773	6.0e-5	0.00025	0.0	122860.99999999999	122860.99999999999	122860.99999999999	0	0	1	-29.999999999999996	29.999999999999996								
	8683	5278	5.0e-5	0.000229	0.0	134762.0	134762.0	134762.0	0	0	1	-29.999999999999996	29.999999999999996								
	3768	2751	0.00019	0.000909	0.0	34015.0	34015.0	34015.0	0	0	1	-29.999999999999996	29.999999999999996								
	2276	5546	0.001711	0.00782	0.0	3946.0	3946.0	3946.0	0	0	1	-29.999999999999996	29.999999999999996								
	2276	6816	0.002651	0.01176	0.0	319.0	2621.0	2621.0	0	0	1	-29.999999999999996	29.999999999999996								
	7766	444	0.001409	0.010599	0.0	2955.0	2955.0	2955.0	0	0	1	-29.999999999999996	29.999999999999996								
	7766	5334	0.001419	0.010219	0.0	3062.0	3062.0	3062.0	0	0	1	-29.999999999999996	29.999999999999996								
	839	3918	0.00013	0.00212	0.0	756.0	14872.0	14872.0	0	0	1	-29.999999999999996	29.999999999999996								
	839	809	0.00026	0.00313	0.0	1282.0	10058.0	10058.0	0	0	1	-29.999999999999996	29.999999999999996								
	4506	2286	0.0047	0.0318	0.0	376.0	983.0	983.0	0	0	1	-29.999999999999996	29.999999999999996								
	4506	6802	0.00136	0.00768	0.0	338.0	4050.0	4050.0	0	0	1	-29.999999999999996	29.999999999999996								
	4506	3520	0.005669	0.027789	0.0	300.0	1114.0	1114.0	0	0	1	-29.999999999999996	29.999999999999996								
	7273	6271	0.004409	0.033091	0.0	281.0	947.0000000000001	947.0000000000001	0	0	1	-29.999999999999996	29.999999999999996								
	7273	1435	0.01056	0.044469	0.0	692.0	692.0	692.0	0	0	1	-29.999999999999996	29.999999999999996								
	7273	7148	0.01963	0.07736	0.0	338.0	396.0	396.0	0	0	1	-29.999999999999996	29.999999999999996								
	7273	7437	0.01157	0.04694	0.0	357.0	654.0	654.0	0	0	1	-29.999999999999996	29.999999999999996								
	6104	871	0.000479	0.00255	0.0	357.0	12175.0	12175.0	0	0	1	-29.999999999999996	29.999999999999996								
	7580	871	0.000469	0.00236	0.0	13128.0	13128.0	13128.0	0	0	1	-29.999999999999996	29.999999999999996								
	1188	1539	0.01237	0.067039	0.0	281.0	463.99999999999994	463.99999999999994	0	0	1	-29.999999999999996	29.999999999999996								
	1188	8515	0.0132	0.056229	0.0	281.0	547.0	547.0	0	0	1	-29.999999999999996	29.999999999999996								
	3971	4084	0.00026	0.001711	0.0	18252.0	18252.0	18252.0	0	0	1	-29.999999999999996	29.999999999999996								
	3971	4084	0.000271	0.001669	0.0	18682.0	18682.0	18682.0	0	0	1	-29.999999999999996	29.999999999999996								
	6845	5340	0.000211	0.000401	0.0	69711.0	69711.0	69711.0	0	0	1	-29.999999999999996	29.999999999999996								
	8294	5814	0.00105	0.005159	0.0	6000.0	6000.0	6000.0	0	0	1	-29.999999999999996	29.999999999999996								
	7115	6807	0.00212	0.00931	0.0	319.0	3309.0000000000005	3309.0000000000005	0	0	1	-29.999999999999996	29.999999999999996								
	619	6791	0.000151	0.00068	0.0	45348.0	45348.0	45348.0	0	0	1	-29.999999999999996	29.999999999999996								
	5418	4908	0.00019	0.00082	0.0	37527.0	37527.0	37527.0	0	0	1	-29.999999999999996	29.999999999999996								
	5120	6816	0.003219	0.01405	0.0	300.0	2192.0	2192.0	0	0	1	-29.999999999999996	29.999999999999996								
	6692	9158	0.007271	0.033159	0.0	281.0	931.0	931.0	0	0	1	-29.999999999999996	29.999999999999996								
	6692	8035	0.006659	0.03132	0.0	300.0	986.9999999999999	986.9999999999999	0	0	1	-29.999999999999996	29.999999999999996								
	3445	2848	0.00057	0.00668	0.0	1480.0	4712.0	4712.0	0	0	1	-29.999999999999996	29.999999999999996								
	3445	7056	0.00057	0.00758	0.0	1414.0	4156.0	4156.0	0	0	1	-29.999999999999996	29.999999999999996								
	3445	7056	0.00039	0.00607	0.0	821.0000000000001	5194.0	5194.0	0	0	1	-29.999999999999996	29.999999999999996								
	3445	1642	0.00155	0.0179	0.0	1759.0	1759.0	1759.0	0	0	1	-29.999999999999996	29.999999999999996								
	3445	4594	0.00036	0.00485	0.0	1545.0	6495.0	6495.0	0	0	1	-29.999999999999996	29.999999999999996								
	6114	1692	0.000581	0.004229	0.0	338.0	7400.0	7400.0	0	0	1	-29.999999999999996	29.999999999999996								
	6114	8190	0.00056	0.00431	0.0	7268.000000000001	7268.000000000001	7268.000000000001	0	0	1	-29.999999999999996	29.999999999999996								
	6114	5836	0.003099	0.020531	0.0	472.0	1522.0	1522.0	0	0	1	-29.999999999999996	29.999999999999996								
	6114	3191	0.00118	0.016919	0.0	509.99999999999994	1863.0	1863.0	0	0	1	-29.999999999999996	29.999999999999996								
	6114	5300	0.00188	0.01407	0.0	2226.0	2226.0	2226.0	0	0	1	-29.999999999999996	29.999999999999996								
	6114	4889	0.00545	0.04082	0.0	357.0	768.0	768.0	0	0	1	-29.999999999999996	29.999999999999996								
	7264	444	0.00214	0.01639	0.0	453.0	1912.0	1912.0	0	0	1	-29.999999999999996	29.999999999999996								
	7264	4747	0.002479	0.01549	0.0	2014.0	2014.0	2014.0	0	0	1	-29.999999999999996	29.999999999999996								
	7982	9011	0.000159	0.001229	0.0	472.0	25490.0	25490.0	0	0	1	-29.999999999999996	29.999999999999996								
	7982	6675	0.00026	0.00162	0.0	453.0	19252.0	19252.0	0	0	1	-29.999999999999996	29.999999999999996								
	7982	6909	0.000159	0.00113	0.0	376.0	27681.0	27681.0	0	0	1	-29.999999999999996	29.999999999999996								
	7982	8835	0.000461	0.003219	0.0	472.0	9714.0	9714.0	0	0	1	-29.999999999999996	29.999999999999996								
	7982	4186	0.000159	0.001229	0.0	25490.0	25490.0	25490.0	0	0	1	-29.999999999999996	29.999999999999996								
	1604	502	0.000229	0.00139	0.0	376.0	22423.0	22423.0	0	0	1	-29.999999999999996	29.999999999999996								
	2842	502	0.0002	0.00156	0.0	338.0	20084.0	20084.0	0	0	1	-29.999999999999996	29.999999999999996								
	1354	513	0.00145	0.00824	0.0	281.0	3776.0	3776.0	0	0	1	-29.999999999999996	29.999999999999996								
	1354	502	0.00069	0.005	0.0	491.0	6259.0	6259.0	0	0	1	-29.999999999999996	29.999999999999996								
	891	3697	0.00036	0.00455	0.0	1809.0	6920.999999999999	6920.999999999999	0	0	1	-29.999999999999996	29.999999999999996								
	891	3697	0.00036	0.00453	0.0	1776.0000000000002	6952.0	6952.0	0	0	1	-29.999999999999996	29.999999999999996								
	8312	7541	0.00066	0.00997	0.0	1348.0	3162.0	3162.0	0	0	1	-29.999999999999996	29.999999999999996								
	8312	7541	0.00064	0.01016	0.0	986.0	3103.0	3103.0	0	0	1	-29.999999999999996	29.999999999999996								
	6306	4826	9.9e-5	0.00044	0.0	529.0	70039.0	70039.0	0	0	1	-29.999999999999996	29.999999999999996								
	4826	4418	6.0e-5	0.000469	0.0	66806.0	66806.0	66806.0	0	0	1	-29.999999999999996	29.999999999999996								
	4826	1605	3.9e-5	0.000341	0.0	92032.0	92032.0	92032.0	0	0	1	-29.999999999999996	29.999999999999996								
	4826	6952	0.002531	0.01943	0.0	433.0	1613.0	1613.0	0	0	1	-29.999999999999996	29.999999999999996								
	4826	7124	0.00945	0.06418	0.0	413.99999999999994	487.0	487.0	0	0	1	-29.999999999999996	29.999999999999996								
	9128	217	0.000591	0.002831	0.0	357.0	10923.0	10923.0	0	0	1	-29.999999999999996	29.999999999999996								
	7014	217	0.00087	0.00387	0.0	7964.0	7964.0	7964.0	0	0	1	-29.999999999999996	29.999999999999996								
	720	5350	0.0015	0.01785	0.0	1183.0	1764.0	1764.0	0	0	1	-29.999999999999996	29.999999999999996								
	720	5350	0.00147	0.0182	0.0	1151.0	1730.0	1730.0	0	0	1	-29.999999999999996	29.999999999999996								
	1711	639	0.00151	0.0113	0.0	376.0	2771.0	2771.0	0	0	1	-29.999999999999996	29.999999999999996								
	1711	639	0.001479	0.011521	0.0	395.0	2720.0	2720.0	0	0	1	-29.999999999999996	29.999999999999996								
	1711	9130	0.00174	0.010341	0.0	413.99999999999994	3013.0	3013.0	0	0	1	-29.999999999999996	29.999999999999996								
	1711	9130	0.001659	0.01206	0.0	453.0	2595.0	2595.0	0	0	1	-29.999999999999996	29.999999999999996								
	8209	1998	0.00069	0.000479	0.0	37606.0	37606.0	37606.0	0	0	1	-29.999999999999996	29.999999999999996								
	8209	7974	0.00044	0.00139	0.0	21666.0	21666.0	21666.0	0	0	1	-29.999999999999996	29.999999999999996								
	1035	8180	0.002039	0.01601	0.0	1957.9999999999998	1957.9999999999998	1957.9999999999998	0	0	1	-29.999999999999996	29.999999999999996								
	1035	7466	0.01349	0.05662	0.0	357.0	543.0	543.0	0	0	1	-29.999999999999996	29.999999999999996								
	1035	305	0.00082	0.00438	0.0	300.0	7089.0	7089.0	0	0	1	-29.999999999999996	29.999999999999996								
	1035	305	0.0008	0.004461	0.0	281.0	6970.0	6970.0	0	0	1	-29.999999999999996	29.999999999999996								
	1035	5106	0.001091	0.00888	0.0	453.0	3531.0	3531.0	0	0	1	-29.999999999999996	29.999999999999996								
	1035	5106	0.00111	0.007039	0.0	491.0	4433.0	4433.0	0	0	1	-29.999999999999996	29.999999999999996								
	2527	8466	0.000849	0.00537	0.0	433.0	5811.0	5811.0	0	0	1	-29.999999999999996	29.999999999999996								
	8669	8893	0.00061	0.00275	0.0	357.0	11214.0	11214.0	0	0	1	-29.999999999999996	29.999999999999996								
	6206	7691	0.00141	0.0188	0.0	1315.0	1676.0000000000002	1676.0000000000002	0	0	1	-29.999999999999996	29.999999999999996								
	6206	6624	0.00121	0.01427	0.0	1545.0	2206.0	2206.0	0	0	1	-29.999999999999996	29.999999999999996								
	3240	8158	0.001711	0.007159	0.0	338.0	4292.0	4292.0	0	0	1	-29.999999999999996	29.999999999999996								
	3240	8795	0.00545	0.02381	0.0	300.0	1294.0	1294.0	0	0	1	-29.999999999999996	29.999999999999996								
	3240	4143	0.000771	0.004331	0.0	7181.0	7181.0	7181.0	0	0	1	-29.999999999999996	29.999999999999996								
	3240	2797	0.00414	0.03282	0.0	453.0	955.0000000000001	955.0000000000001	0	0	1	-29.999999999999996	29.999999999999996								
	3240	6331	0.00264	0.011521	0.0	338.0	2673.0	2673.0	0	0	1	-29.999999999999996	29.999999999999996								
	3240	6384	0.00261	0.011	0.0	376.0	2795.0	2795.0	0	0	1	-29.999999999999996	29.999999999999996								
	3240	7523	0.00239	0.00919	0.0	319.0	3327.0000000000005	3327.0000000000005	0	0	1	-29.999999999999996	29.999999999999996								
	3240	2889	0.000539	0.00226	0.0	13596.0	13596.0	13596.0	0	0	1	-29.999999999999996	29.999999999999996								
...
];

%%-----  OPF Data  -----%%
%% cost data
%    1    startup    shutdown    n    x1    y1    ...    xn    yn
%    2    startup    shutdown    n    c(n-1)    ...    c0
mpc.gencost = [
	2	0.0	0.0	2	10.258323	0.0
	2	0.0	0.0	2	35.739304	0.0
	2	0.0	0.0	2	25.382856000000004	0.0
	2	0.0	0.0	2	22.570530000000005	0.0
	2	0.0	0.0	2	24.410748000000005	0.0
	2	0.0	0.0	2	37.397266	0.0
	2	0.0	0.0	2	14.602967	0.0
	2	0.0	0.0	2	6.171706	0.0
	2	0.0	0.0	2	26.392883	0.0
	2	0.0	0.0	2	29.720369	0.0
	2	0.0	0.0	2	35.601645	0.0
	2	0.0	0.0	2	19.829521	0.0
	2	0.0	0.0	2	15.01068	0.0
	2	0.0	0.0	2	9.860522	0.0
	2	0.0	0.0	2	11.144193	0.0
	2	0.0	0.0	2	0.348478	0.0
	2	0.0	0.0	2	45.48034	0.0
	2	0.0	0.0	2	48.260283	0.0
	2	0.0	0.0	2	28.185912	0.0
	2	0.0	0.0	2	32.876654	0.0
	2	0.0	0.0	2	29.050011	0.0
	2	0.0	0.0	2	17.693424	0.0
	2	0.0	0.0	2	28.179452	0.0
	2	0.0	0.0	2	16.78295	0.0
	2	0.0	0.0	2	34.077711	0.0
	2	0.0	0.0	2	25.254765	0.0
	2	0.0	0.0	2	25.888316	0.0
	2	0.0	0.0	2	38.064806	0.0
	2	0.0	0.0	2	35.093256	0.0
	2	0.0	0.0	2	33.895058	0.0
	2	0.0	0.0	2	42.531078	0.0
	2	0.0	0.0	2	44.703485	0.0
	2	0.0	0.0	2	19.144125	0.0
	2	0.0	0.0	2	39.146988	0.0
	2	0.0	0.0	2	32.283038	0.0
	2	0.0	0.0	2	33.961897	0.0
	2	0.0	0.0	2	24.001968	0.0
	2	0.0	0.0	2	26.922445	0.0
	2	0.0	0.0	2	28.934071	0.0
	2	0.0	0.0	2	29.194991	0.0
	2	0.0	0.0	2	39.793039	0.0
	2	0.0	0.0	2	43.399752	0.0
	2	0.0	0.0	2	20.054935	0.0
	2	0.0	0.0	2	18.252906	0.0
	2	0.0	0.0	2	41.981874	0.0
	2	0.0	0.0	2	42.98204	0.0
	2	0.0	0.0	2	16.220225	0.0
	2	0.0	0.0	2	21.265424	0.0
	2	0.0	0.0	2	17.662994	0.0
	2	0.0	0.0	2	15.838148000000002	0.0
	2	0.0	0.0	2	6.883722000000001	0.0
	2	0.0	0.0	2	118.07669	0.0
	2	0.0	0.0	2	19.82896	0.0
	2	0.0	0.0	2	18.889404	0.0
	2	0.0	0.0	2	32.470152	0.0
	2	0.0	0.0	2	26.491829	0.0
	2	0.0	0.0	2	24.981434	0.0
	2	0.0	0.0	2	38.427501	0.0
	2	0.0	0.0	2	38.894704	0.0
	2	0.0	0.0	2	34.810352	0.0
	2	0.0	0.0	2	32.089221	0.0
	2	0.0	0.0	2	24.960517	0.0
	2	0.0	0.0	2	40.587389	0.0
	2	0.0	0.0	2	36.44582	0.0
	2	0.0	0.0	2	6.803769	0.0
	2	0.0	0.0	2	27.474887	0.0
	2	0.0	0.0	2	28.188143	0.0
	2	0.0	0.0	2	27.672537	0.0
	2	0.0	0.0	2	37.476158	0.0
	2	0.0	0.0	2	38.32436	0.0
	2	0.0	0.0	2	29.361646	0.0
	2	0.0	0.0	2	46.894604	0.0
	2	0.0	0.0	2	33.066585	0.0
	2	0.0	0.0	2	10.656581	0.0
	2	0.0	0.0	2	15.138451	0.0
	2	0.0	0.0	2	34.209845	0.0
	2	0.0	0.0	2	24.094682	0.0
	2	0.0	0.0	2	24.965438	0.0
	2	0.0	0.0	2	23.765406	0.0
	2	0.0	0.0	2	30.752977	0.0
	2	0.0	0.0	2	22.474015	0.0
	2	0.0	0.0	2	34.978644	0.0
	2	0.0	0.0	2	30.995415000000005	0.0
	2	0.0	0.0	2	18.020307	0.0
	2	0.0	0.0	2	22.902755	0.0
	2	0.0	0.0	2	28.059178	0.0
	2	0.0	0.0	2	31.565151	0.0
	2	0.0	0.0	2	23.86504	0.0
	2	0.0	0.0	2	19.68005	0.0
	2	0.0	0.0	2	26.499589	0.0
	2	0.0	0.0	2	28.385891	0.0
	2	0.0	0.0	2	39.23531	0.0
	2	0.0	0.0	2	31.599182000000003	0.0
	2	0.0	0.0	2	30.64784	0.0
	2	0.0	0.0	2	38.31144	0.0
	2	0.0	0.0	2	7.5175410000000005	0.0
	2	0.0	0.0	2	14.951813	0.0
	2	0.0	0.0	2	24.810462	0.0
	2	0.0	0.0	2	79.708144	0.0
	2	0.0	0.0	2	23.802999	0.0
	2	0.0	0.0	2	34.702382	0.0
	2	0.0	0.0	2	38.611659	0.0
	2	0.0	0.0	2	7.619883	0.0
	2	0.0	0.0	2	42.1954	0.0
	2	0.0	0.0	2	7.253371	0.0
	2	0.0	0.0	2	37.314915	0.0
	2	0.0	0.0	2	31.383243000000004	0.0
	2	0.0	0.0	2	22.446061	0.0
	2	0.0	0.0	2	27.981934000000003	0.0
	2	0.0	0.0	2	100.586864	0.0
	2	0.0	0.0	2	33.204589	0.0
	2	0.0	0.0	2	7.122779	0.0
	2	0.0	0.0	2	18.6669	0.0
	2	0.0	0.0	2	7.550981	0.0
	2	0.0	0.0	2	35.604133	0.0
	2	0.0	0.0	2	19.804309	0.0
	2	0.0	0.0	2	26.144799	0.0
	2	0.0	0.0	2	44.14781	0.0
	2	0.0	0.0	2	35.562693	0.0
	2	0.0	0.0	2	35.807424	0.0
	2	0.0	0.0	2	39.446996	0.0
	2	0.0	0.0	2	18.53867	0.0
	2	0.0	0.0	2	30.909880000000005	0.0
	2	0.0	0.0	2	30.544167	0.0
	2	0.0	0.0	2	35.965332	0.0
	2	0.0	0.0	2	7.051011	0.0
	2	0.0	0.0	2	42.356822	0.0
	2	0.0	0.0	2	27.296003000000002	0.0
	2	0.0	0.0	2	30.938094000000003	0.0
	2	0.0	0.0	2	28.931033	0.0
	2	0.0	0.0	2	22.588806	0.0
	2	0.0	0.0	2	37.302716	0.0
	2	0.0	0.0	2	37.977313	0.0
	2	0.0	0.0	2	4.345048	0.0
	2	0.0	0.0	2	22.462959	0.0
	2	0.0	0.0	2	19.814769	0.0
	2	0.0	0.0	2	8.0167	0.0
	2	0.0	0.0	2	20.456068	0.0
	2	0.0	0.0	2	44.670249	0.0
	2	0.0	0.0	2	43.366752	0.0
	2	0.0	0.0	2	36.105171	0.0
	2	0.0	0.0	2	25.107671	0.0
	2	0.0	0.0	2	37.943609	0.0
	2	0.0	0.0	2	33.086316	0.0
	2	0.0	0.0	2	36.303918	0.0
	2	0.0	0.0	2	29.260622000000005	0.0
	2	0.0	0.0	2	98.992318	0.0
	2	0.0	0.0	2	27.405063000000002	0.0
	2	0.0	0.0	2	17.378434	0.0
	2	0.0	0.0	2	34.198047	0.0
	2	0.0	0.0	2	36.694475	0.0
	2	0.0	0.0	2	37.735549	0.0
	2	0.0	0.0	2	8.912924	0.0
	2	0.0	0.0	2	38.250898	0.0
	2	0.0	0.0	2	14.979523	0.0
	2	0.0	0.0	2	28.538110000000003	0.0
	2	0.0	0.0	2	39.424853	0.0
	2	0.0	0.0	2	39.296805	0.0
	2	0.0	0.0	2	14.861628000000001	0.0
	2	0.0	0.0	2	29.670276000000005	0.0
	2	0.0	0.0	2	33.798273	0.0
	2	0.0	0.0	2	28.336670000000005	0.0
	2	0.0	0.0	2	18.404323	0.0
	2	0.0	0.0	2	41.06003900000001	0.0
	2	0.0	0.0	2	32.08086	0.0
	2	0.0	0.0	2	33.555466	0.0
	2	0.0	0.0	2	13.210681	0.0
	2	0.0	0.0	2	32.184103	0.0
	2	0.0	0.0	2	16.825774	0.0
	2	0.0	0.0	2	30.459416	0.0
	2	0.0	0.0	2	31.825995	0.0
	2	0.0	0.0	2	25.704435	0.0
	2	0.0	0.0	2	113.88152100000002	0.0
	2	0.0	0.0	2	48.679477	0.0
	2	0.0	0.0	2	37.090734	0.0
	2	0.0	0.0	2	44.629615	0.0
	2	0.0	0.0	2	4.688	0.0
	2	0.0	0.0	2	7.924707	0.0
	2	0.0	0.0	2	15.196866	0.0
	2	0.0	0.0	2	31.536394	0.0
	2	0.0	0.0	2	41.051660000000005	0.0
	2	0.0	0.0	2	36.290422	0.0
	2	0.0	0.0	2	16.038621	0.0
	2	0.0	0.0	2	32.583295	0.0
	2	0.0	0.0	2	18.644095	0.0
	2	0.0	0.0	2	25.524756000000004	0.0
	2	0.0	0.0	2	36.090071	0.0
	2	0.0	0.0	2	43.804954	0.0
	2	0.0	0.0	2	26.393553	0.0
	2	0.0	0.0	2	47.18268700000001	0.0
	2	0.0	0.0	2	14.350508	0.0
	2	0.0	0.0	2	14.275729000000002	0.0
	2	0.0	0.0	2	24.479866	0.0
	2	0.0	0.0	2	114.612148	0.0
	2	0.0	0.0	2	32.065876	0.0
	2	0.0	0.0	2	29.385085	0.0
	2	0.0	0.0	2	36.659346	0.0
	2	0.0	0.0	2	4.6021	0.0
	2	0.0	0.0	2	58.771001	0.0
	2	0.0	0.0	2	15.431582	0.0
...
];

